nrt/data/EMT/EmtNetworkLineFaultDisconnection/rlc.iidm
<?xml version="1.0" encoding="UTF-8"?>
<iidm:network xmlns:iidm="http://www.powsybl.org/schema/iidm/1_4" id="emtrlc" caseDate="2024-01-01T00:00:00.000+00:00" forecastDistance="0" sourceFormat="manual">
  <iidm:substation id="S0" country="FR">
    <iidm:voltageLevel id="VL0" nominalV="1.0" topologyKind="BUS_BREAKER">
      <iidm:busBreakerTopology>
        <iidm:bus id="B0" v="1.0" angle="0.0"/>
      </iidm:busBreakerTopology>
      <iidm:generator id="G0" energySource="OTHER" minP="-999.0" maxP="999.0" voltageRegulatorOn="true" targetP="0.0" targetV="1.0" targetQ="0.0" bus="B0" connectableBus="B0" p="0.0" q="0.0">
        <iidm:minMaxReactiveLimits minQ="-999.0" maxQ="999.0"/>
      </iidm:generator>
    </iidm:voltageLevel>
  </iidm:substation>
  <iidm:substation id="S1" country="FR">
    <iidm:voltageLevel id="VL1" nominalV="1.0" topologyKind="BUS_BREAKER">
      <iidm:busBreakerTopology>
        <iidm:bus id="B1" v="1.0" angle="0.0"/>
      </iidm:busBreakerTopology>
      <iidm:load id="L1" loadType="UNDEFINED" p0="50.0" q0="0.0" p="50.0" q="0.0" bus="B1" connectableBus="B1"/>
      <iidm:shunt id="SH1" sectionCount="1" bus="B1" connectableBus="B1" q="0.0">
        <iidm:shuntLinearModel bPerSection="6.283185307179586" gPerSection="0.0" maximumSectionCount="1"/>
      </iidm:shunt>
    </iidm:voltageLevel>
  </iidm:substation>
  <iidm:line id="LINE" r="0.0005" x="0.0015707963267948967" g1="0.0" b1="0.0" g2="0.0" b2="0.0" bus1="B0" connectableBus1="B0" voltageLevelId1="VL0" bus2="B1" connectableBus2="B1" voltageLevelId2="VL1" p1="0.0" q1="0.0" p2="0.0" q2="0.0"/>
</iidm:network>
